* Z:\mnt\design.r\spice\examples\1001.asc
V1 +V 0 15
XU1 0 N001 +V -V N004 LT1001
V2 -V 0 -15
R1 N002 N001 10K
V3 IN 0 SINE(0 10 100)
XU2 N005 N003 +V -V OUT LT1001
D1 N002 N004 1N4148
R2 N001 IN 10K
R3 N005 N001 10K
R4 N003 N002 10K
R5 OUT N003 10K
D2 N004 N005 1N4148
.model D D
.lib C:\users\brian\My Documents\LTspiceXVII\lib\cmp\standard.dio
.tran 30m
* Precision Absolute Value Circuit
.lib LTC.lib
.backanno
.end
* Z:\mnt\design.r\spice\examples\1001A.asc
V1 +V 0 15
V2 -V 0 -15
R1 N002 N001 10K
V3 IN 0 SINE(0 10 100)
D1 N002 N004 1N4148
R2 N001 IN 10K
R3 N005 N001 10K
R4 N003 N002 10K
R5 OUT N003 10K
D2 N004 N005 1N4148
XU1 0 N001 +V -V N004 LT1001
XU2 N005 N003 +V -V OUT LT1001
.model D D
.lib C:\users\brian\My Documents\LTspiceXVII\lib\cmp\standard.dio
.tran 30m
* Precision Absolute Value Circuit
.lib LTC.lib
.backanno
.end
* Z:\mnt\design.r\spice\examples\1001S8.asc
V1 +V 0 15
V2 -V 0 -15
R1 N002 N001 10K
V3 IN 0 SINE(0 10 100)
D1 N002 N004 1N4148
R2 N001 IN 10K
R3 N005 N001 10K
R4 N003 N002 10K
R5 OUT N003 10K
D2 N004 N005 1N4148
XU1 0 N001 +V -V N004 LT1001
XU2 N005 N003 +V -V OUT LT1001
.model D D
.lib C:\users\brian\My Documents\LTspiceXVII\lib\cmp\standard.dio
.tran 30m
* Precision Absolute Value Circuit
.lib LTC.lib
.backanno
.end
* Z:\mnt\design.r\spice\examples\1002.asc
V1 +V 0 15
V2 -V 0 -15
R1 N003 N001 10K
R2 N001 0 100K
V3 IN- IN+ SINE(0 1m 100)
XU1 IN- N001 +V -V N003 LT1001
XU2 IN+ N002 +V -V OUT LT1001
R3 N002 N001 2.2K
R4 N002 N003 10K
R5 OUT N002 100K
V4 IN+ 0 SINE(0 1 10)
.tran 300m
* Two Op Amp Instrumentation Amplifier
.lib LTC.lib
.backanno
.end
* Z:\mnt\design.r\spice\examples\1002A.asc
V1 +V 0 15
V2 -V 0 -15
R1 N003 N001 10K
R2 N001 0 100K
V3 IN- IN+ SINE(0 1m 100)
R3 N002 N001 2.2K
R4 N002 N003 10K
R5 OUT N002 100K
V4 IN+ 0 SINE(0 1 10)
XU1 IN- N001 +V -V N003 LT1001
XU2 IN+ N002 +V -V OUT LT1001
.tran 300m
* Two Op Amp Instrumentation Amplifier
.lib LTC.lib
.backanno
.end
* Z:\mnt\design.r\spice\examples\1004-1.2.asc
XU1 OUT 0 LT1004-1.2
R1 OUT N001 36K
V1 N001 0 PULSE(0 5 100u 10n 10n 500u 1)
.tran 700u
.lib LTC3.lib
.backanno
.end
* Z:\mnt\design.r\spice\examples\1004-2.5.asc
R1 OUT N001 24K
V1 N001 0 PULSE(0 5 100u 10n 10n 500u 1)
XU1 OUT 0 LT1004-2.5
.tran 700u
.lib LTC3.lib
.backanno
.end
* Z:\mnt\design.r\spice\examples\1006.asc
V1 +V 0 5
R1 OUT N001 99K
R2 N001 0 1K
V3 IN 0 SINE(5m 1m 1K)
XU1 IN N001 +V 0 OUT LT1006
R3 OUT 0 660
.tran 3m
* Gain 100 Amplifier
.lib LTC.lib
.backanno
.end
* Z:\mnt\design.r\spice\examples\1006A.asc
V1 +V 0 5
R1 OUT N001 99K
R2 N001 0 1K
V3 IN 0 SINE(5m 1m 1K)
R3 OUT 0 660
XU1 IN N001 +V 0 OUT LT1006
.tran 3m
* Gain 100 Amplifier
.lib LTC.lib
.backanno
.end
* Z:\mnt\design.r\spice\examples\1006S8.asc
V1 +V 0 5
R1 OUT N001 99K
R2 N001 0 1K
V3 IN 0 SINE(5m 1m 1K)
R3 OUT 0 660
XU1 IN N001 +V 0 OUT LT1006
.tran 3m
* Gain 100 Amplifier
.lib LTC.lib
.backanno
.end
* Z:\mnt\design.r\spice\examples\1007.asc
V1 +V 0 15
V2 -V 0 -15
R1 OUT N001 355K
R2 N001 0 365
V3 IN 0 SINE(0 1m .01)
XU1 IN N001 +V -V OUT LT1007
.tran 300
* Gain 1000 Amplifier with .01% Accuracy
.lib LTC.lib
.backanno
.end
* Z:\mnt\design.r\spice\examples\1007A.asc
V1 +V 0 15
V2 -V 0 -15
R1 OUT N001 355K
R2 N001 0 365
V3 IN 0 SINE(0 1m .01)
XU1 IN N001 +V -V OUT LT1007
.tran 300
* Gain 1000 Amplifier with .01% Accuracy
.lib LTC.lib
.backanno
.end
* Z:\mnt\design.r\spice\examples\1007CS.asc
V1 +V 0 15
V2 -V 0 -15
R1 OUT N001 355K
R2 N001 0 365
V3 IN 0 SINE(0 1m .01)
XU1 IN N001 +V -V OUT LT1007
.tran 300
* Gain 1000 Amplifier with .01% Accuracy
.lib LTC.lib
.backanno
.end
* Z:\mnt\design.r\spice\examples\1008.asc
V1 +V 0 15
V2 -V 0 -15
V3 N004 0 SINE(0 1 1K)
XU1 N005 N001 +V -V N001 N002 N003 LT1008
C1 N003 N002 1000p
R1 N005 N004 100K
.tran 3m
.lib LTC.lib
.backanno
.end
* Z:\mnt\design.r\spice\examples\1009.asc
V1 N001 0 5
R1 N001 OUT 3.6K
XU1 OUT 0 N002 LT1009
R2 OUT N002 {10K*(1-x)}
R3 N002 0 {10K*x}
.dc TEMP -55 125 .1
.step param x .4 .6 .1
.lib LTC3.lib
.backanno
.end
* Z:\mnt\design.r\spice\examples\100W.asc
M§Q1 +V N010 N012 N012 IRFP240
M§Q2 -V N020 N017 N017 IRFP9240
R1 OUT N017 .33
R2 N012 OUT .33
C1 OUT N016 100n
R3 N016 0 10
R4 N010 N009 470
R5 N020 N019 470
V1 +V 0 50
V2 0 -V 50
Q3 N009 N006 N005 0 MJE350
Q4 N006 N006 N004 0 MJE350
R6 +V N005 100
R7 N009 N019 890
Q5 N019 N023 N024 0 MJE340
R8 +V N004 100
R9 N024 -V 100
Q6 N022 N021 N024 0 MJE340
C2 N023 N019 18p
C3 N022 N021 18p
R10 N006 N022 10K
Q7 N023 N015 N008 0 MJE350
Q8 N021 N011 N008 0 MJE350
R13 N023 -V 3.9K
R14 N021 -V 3.9K
Q9 N008 N003 N001 0 MJE350
R15 +V N001 470
R16 N002 N001 1K
Q10 N003 N002 +V 0 MJE350
R17 N003 N007 10K
R18 N007 0 10K
C4 +V N007 47µ
R19 OUT1 N011 27K
R20 N011 N018 1K
C5 N018 0 100µ
C6 N015 0 330p
R21 N015 N014 2.2K
R22 N014 0 47K
C7 N014 N013 2.2µ
Vin N013 0 SINE(0 {V} 1K)
R23 OUT 0 8
R24 +V N011 3.67Meg
R25 N011 -V 6.1Meg
V3 OUT OUT1 ac 1
C8 OUT1 N011 3p
.model NPN NPN
.model PNP PNP
.lib C:\users\brian\My Documents\LTspiceXVII\lib\cmp\standard.bjt
.model NMOS NMOS
.model PMOS PMOS
.lib C:\users\brian\My Documents\LTspiceXVII\lib\cmp\standard.mos
.tran 10m
;.ac oct 50 1M 10Meg ; plot V(out)/V(out1) to see 72° phase margin @ 950kHz
;.dc temp -55 125 1
;.noise V(out) Vin oct 10 10 20K
.options plotwinsize=0 numdgt=15 noopiter
.four 1K V(out)
.model MJE340 NPN(Is=1.03431e-13 BF=172.974 NF=.939811 VAF=27.3487 IKF=0.0260146 ISE=4.48447e-11 Ne=1.61605 Br=16.6725
+ Nr=0.796984 VAR=6.11596 IKR=0.10004 Isc=9.99914e-14 Nc=1.99995 RB=1.47761 IRB=0.2 RBM=1.47761 Re=0.0001 RC=1.42228
+ XTB=2.70726 XTI=1 Eg=1.206 CJE=1e-11 VJE=0.75 Mje=.33 TF=1e-09 XTF=1 VTF=10 ITF=0.01 CJC=1e-11 VJC=.75 MJC=0.33 XCJC=.9
+ Fc=0.5 CJS=0 VJS=0.75 MJS=0.5 TR=1e-07 PTF=0 KF=0 AF=1)
.model MJE350 PNP(Is=6.01619e-15 BF=157.387 NF=.910131 VAF=23.273 IKF=0.0564808 Ise=4.48479e-12 Ne=1.58557 BR=0.1
+ NR=1.03823 VAR=4.14543 IKR=.0999978 ISC=1.00199e-13 Nc=1.98851 RB=.1 IRB=0.202965 RBM=0.1 Re=.0710678 Rc=.355339
+ XTB=1.03638 XTI=3.8424 Eg=1.206 Cje=1e-11 Vje=0.75 Mje=0.33 TF=1e-09 XTF=1 VTF=10 ITF=0.01 Cjc=1e-11 Vjc=0.75
+ Mjc=0.33 XCJC=0.9 Fc=0.5 Cjs=0 Vjs=0.75 Mjs=0.5 TR=1e-07 PTF=0 KF=0 AF=1)
.param V=1.44 ; 100W RMS
.step oct param V 1m 1.44 2
* 100W into 8O at less than  .1% THD\nAdjust R7 for 15mA quiescent current through Q1/Q2\nR24 & R24 are optional output offset trimming
.backanno
.end
* Z:\mnt\design.r\spice\examples\1010.asc
V1 +V 0 15
V2 -V 0 -15
V3 N001 0 SINE(0 1 1K)
XU1 N001 +V -V NC_01 N002 LT1010
.tran 3m
.lib LTC.lib
.backanno
.end
* Z:\mnt\design.r\spice\examples\1011.asc
XU1 0 0 N001 -V NC_01 N003 N002 +V LT1011
V1 +V 0 15
V2 -V 0 -15
V3 N001 0 PULSE(-100m 100m 0 .5m .5m 0 1m)
R1 +V N002 2K
Q1 N003 N004 N005 0 2N3904
R2 N005 0 3K
V4 N004 0 PULSE(0 2.7 0 1u 1u 5m 10m)
.model NPN NPN
.model PNP PNP
.lib C:\users\brian\My Documents\LTspiceXVII\lib\cmp\standard.bjt
.tran 30m
.lib LTC1.lib
.backanno
.end
* Z:\mnt\design.r\spice\examples\1012.asc
V1 +V 0 15
V2 -V 0 -15
R1 N002 N001 10Meg
R2 N001 IN- 100Meg
V3 IN- IN+ SINE(0 100m 10)
XU1 N003 N001 +V -V OUT LT1012
R3 0 N002 100
R4 N002 OUT 100K
R5 N003 IN+ 100Meg
R6 N003 0 10Meg
V4 IN+ 0 SINE(0 100 1)
.tran 3
* Instrumentation Amplifier with ±100V Common Mode Range
.lib LTC.lib
.backanno
.end
* Z:\mnt\design.r\spice\examples\1012A.asc
V1 +V 0 15
V2 -V 0 -15
R1 N002 N001 10Meg
R2 N001 IN- 100Meg
V3 IN- IN+ SINE(0 100m 10)
R3 0 N002 100
R4 N002 OUT 100K
R5 N003 IN+ 100Meg
R6 N003 0 10Meg
V4 IN+ 0 SINE(0 100 1)
XU1 N003 N001 +V -V OUT LT1012
.tran 3
* Instrumentation Amplifier with ±100V Common Mode Range
.lib LTC.lib
.backanno
.end
* Z:\mnt\design.r\spice\examples\1012D.asc
V1 +V 0 15
V2 -V 0 -15
R1 N002 N001 10Meg
R2 N001 IN- 100Meg
V3 IN- IN+ SINE(0 100m 10)
R3 0 N002 100
R4 N002 OUT 100K
R5 N003 IN+ 100Meg
R6 N003 0 10Meg
V4 IN+ 0 SINE(0 100 1)
XU1 N003 N001 +V -V OUT LT1012
.tran 3
* Instrumentation Amplifier with ±100V Common Mode Range
.lib LTC.lib
.backanno
.end
* Z:\mnt\design.r\spice\examples\1012S8.asc
V1 +V 0 15
V2 -V 0 -15
R1 N003 N002 10Meg
R2 N002 N001 100Meg
V3 N001 N004 SINE(0 100m 10)
R3 0 N003 100
R4 N003 OUT 100K
R5 N005 N004 100Meg
R6 N005 0 10Meg
V4 N004 0 SINE(0 100 1)
XU1 N005 N002 +V -V OUT LT1012
.tran 3
* Instrumentation Amplifier with ±100V Common Mode Range
.lib LTC.lib
.backanno
.end
* Z:\mnt\design.r\spice\examples\1013.asc
V1 +V 0 15
XU1 N003 N001 +V -V N002 LT1013
R1 N002 N001 50K
R2 N001 0 5K
V3 N003 0 sine(0 .5 10K)
V2 -V 0 -15
.tran 1m
.lib LTC.lib
.backanno
.end
* Z:\mnt\design.r\spice\examples\1013A.asc
V1 +V 0 15
R1 N002 N001 50K
R2 N001 0 5K
V3 N003 0 sine(0 .5 10K)
V2 -V 0 -15
XU1 N003 N001 +V -V N002 LT1013
.tran 1m
.lib LTC.lib
.backanno
.end
* Z:\mnt\design.r\spice\examples\1013D.asc
V1 +V 0 15
R1 N002 N001 50K
R2 N001 0 5K
V3 N003 0 sine(0 .5 10K)
V2 -V 0 -15
XU1 N003 N001 +V -V N002 LT1013
.tran 1m
.lib LTC.lib
.backanno
.end
* Z:\mnt\design.r\spice\examples\1014.asc
V1 +V 0 15
V2 -V 0 -15
R1 N006 N005 100K
R2 N003 N001 100K
V3 IN+ 0 SINE(0 1 10)
XU1 IN+ N005 +V -V N006 LT1013
XU2 IN- N003 +V -V N001 LT1013
R3 N005 N003 1K
XU3 N004 N002 +V -V OUT LT1013
R4 N002 N001 100K
R5 N004 N006 100K
R6 OUT N002 100K
R7 0 N004 100K
V4 IN- IN+ SINE(0 10m 100)
R8 N007 IN- 10Meg
R9 N007 IN+ 5Meg
R10 N007 N008 10Meg
C1 N008 N007 10p
XU4 IN+ N008 +V -V N007 LT1013
R11 N007 -V 100K
.tran 300m
* Triple Op Amp Instrumentation Amplifier with Bias Current Cancellation
.lib LTC.lib
.backanno
.end
* Z:\mnt\design.r\spice\examples\1014A.asc
V1 +V 0 15
V2 -V 0 -15
R1 N006 N005 100K
R2 N003 N001 100K
V3 IN+ 0 SINE(0 1 10)
R3 N005 N003 1K
R4 N002 N001 100K
R5 N004 N006 100K
R6 OUT N002 100K
R7 0 N004 100K
V4 IN- IN+ SINE(0 10m 100)
R8 N007 IN- 10Meg
R9 N007 IN+ 5Meg
R10 N007 N008 10Meg
C1 N008 N007 10p
R11 N007 -V 100K
XU1 IN+ N005 +V -V N006 LT1013
XU2 N004 N002 +V -V OUT LT1013
XU3 IN- N003 +V -V N001 LT1013
XU4 IN+ N008 +V -V N007 LT1013
.tran 300m
* Triple Op Amp Instrumentation Amplifier with Bias Current Cancellation
.lib LTC.lib
.backanno
.end
* Z:\mnt\design.r\spice\examples\1014D.asc
V1 +V 0 15
V2 -V 0 -15
R1 N006 N005 100K
R2 N003 N001 100K
V3 IN+ 0 SINE(0 1 10)
R3 N005 N003 1K
R4 N002 N001 100K
R5 N004 N006 100K
R6 OUT N002 100K
R7 0 N004 100K
V4 IN- IN+ SINE(0 10m 100)
R8 N007 IN- 10Meg
R9 N007 IN+ 5Meg
R10 N007 N008 10Meg
C1 N008 N007 10p
R11 N007 -V 100K
XU1 IN+ N005 +V -V N006 LT1013
XU2 N004 N002 +V -V OUT LT1013
XU3 IN- N003 +V -V N001 LT1013
XU4 IN+ N008 +V -V N007 LT1013
.tran 300m
* Triple Op Amp Instrumentation Amplifier with Bias Current Cancellation
.lib LTC.lib
.backanno
.end
* Z:\mnt\design.r\spice\examples\1015.asc
V1 N001 0 5
V2 N004 0 PULSE(2 3 0 .5u .5u 0 1u)
XU1 N004 N002 N001 0 N003 N005 LT1015
R1 N001 N002 10K
R2 N002 0 10K
V3 N005 0 PULSE(0 5 0 5n 5n 5u 10u)
.tran 30u
.lib LTC1.lib
.backanno
.end
* Z:\mnt\design.r\spice\examples\1016.asc
XU1 +V N003 N001 0 0 0 N002 OUT LT1016
V1 +V 0 PWL(0 0 .5u 5)
R1 N002 N001 2K
C1 N001 0 200p
R2 N003 0 4K
R3 +V N003 4K
C2 N003 N004 820p
R4 N004 0 22
C§Y1 N002 N003 .32p Rser=45 Lser=.78m Cpar=18p
.tran 10u
* 10MHz
* 10MHz to 25MHz Crystal Oscillator
.lib LTC.lib
.backanno
.end
* Z:\mnt\design.r\spice\examples\1017.asc
V1 +V 0 5
XU1 N002 N001 +V 0 OUT LT1017
R1 N002 0 100K
R2 +V N002 1K
R3 N001 0 20K
C1 +V N001 1µ
.tran 5m startup
* Delay On Power Up
.lib LTC1.lib
.backanno
.end
* Z:\mnt\design.r\spice\examples\1018.asc
V1 N002 0 9
XU1 N005 N003 N002 0 OUT LT1018
R1 N005 N009 1Meg
R2 N009 0 10K
D1 N008 N009 1N4148
D2 N003 N001 1N4148
R3 N001 N002 47K
D3 N001 0 1N4148
C1 OUT N001 .001µ
R4 OUT N001 3Meg
D4 OUT N004 1N4148
R5 N002 N004 220K
D5 N004 N007 1N4148
D6 0 N007 LT1034
XU2 N007 N010 N002 0 N008 LT1018
R6 OUT N010 330K
C2 0 N010 .1µ
C3 0 N003 .1µ
Q1 N003 N006 0 0 2N3904
R7 N008 N006 100K
R8 N003 IN 1.2Meg
V2 IN 0 PWL(0 0 .5 1)
C4 OUT N009 220p
C5 0 N004 2.2µ
C6 N010 N008 100p
.model D D
.lib C:\users\brian\My Documents\LTspiceXVII\lib\cmp\standard.dio
.model NPN NPN
.model PNP PNP
.lib C:\users\brian\My Documents\LTspiceXVII\lib\cmp\standard.bjt
.tran .5 startup
.model LT1034 D(Ron=10 Vrev=1.16 epsilon=100m revepsilon=100m)
* Low Power V-to-F Converter
.lib LTC1.lib
.backanno
.end
* Z:\mnt\design.r\spice\examples\101A.asc
V1 +V 0 15
V2 -V 0 -15
V3 N003 0 PULSE(5 -5 10u .5u .5u 53u 200u)
C1 N002 N001 30p
XU1 N001 OUT1 N003 -V OUT1 +V N002 RH101A
C2 N005 N004 30p
XU2 N004 OUT2 N003 -V OUT2 +V NC_01 RH101A
C3 OUT2 N005 300p
R1 N005 0 10K
.tran 100u
* Single Pole Compensation
* Two Pole Compensation
.lib LTC.lib
.backanno
.end
* Z:\mnt\design.r\spice\examples\1021-10.asc
XU1 IN 0 OUT N001 LT1021-10
V1 IN 0 15
R1 OUT N001 {10K*(1-x)}
R2 N001 0 {10K*x}
.tran 1m startup
.step param X .1 .9 .1
.lib LTC3.lib
.backanno
.end
* Z:\mnt\design.r\spice\examples\1021-5.asc
XU1 IN 0 OUT N001 LT1021-5
V1 IN 0 12
R1 OUT N001 27K
R2 OUT N002 {50K*(1-x)}
R3 N002 0 {50K*x}
D1 N001 N002 1N4148
.model D D
.lib C:\users\brian\My Documents\LTspiceXVII\lib\cmp\standard.dio
.dc TEMP -50 125 1
.step param X list .2 .5 .8
.lib LTC3.lib
.backanno
.end
* Z:\mnt\design.r\spice\examples\1021-7.asc
XU1 IN 0 OUT LT1021-7
V1 IN 0 12
.tran 1m startup
.lib LTC3.lib
.backanno
.end
* Z:\mnt\design.r\spice\examples\1022.asc
V1 +V 0 15
V2 -V 0 -15
R1 N002 N001 10K
R2 N001 IN 10K
V3 IN 0 SINE(0 1 10K)
XU1 0 N001 +V -V N004 LT1022
XU2 N005 N003 +V -V OUT LT1022
D1 N002 N004 1N4148
D2 N004 N005 1N4148
R3 N005 N001 10K
C1 N002 N001 10p
R4 N003 N002 10K
R5 OUT N003 10K
C2 OUT N003 10p
.model D D
.lib C:\users\brian\My Documents\LTspiceXVII\lib\cmp\standard.dio
.tran 1m
* Wide Bandwidth Absolute Value Circuit
.lib LTC.lib
.backanno
.end
* Z:\mnt\design.r\spice\examples\1022A.asc
V1 +V 0 15
V2 -V 0 -15
R1 N002 N001 10K
R2 N001 IN 10K
V3 IN 0 SINE(0 1 10K)
D1 N002 N004 1N4148
D2 N004 N005 1N4148
R3 N005 N001 10K
C1 N002 N001 10p
R4 N003 N002 10K
R5 OUT N003 10K
C2 OUT N003 10p
XU1 0 N001 +V -V N004 LT1022
XU2 N005 N003 +V -V OUT LT1022
.model D D
.lib C:\users\brian\My Documents\LTspiceXVII\lib\cmp\standard.dio
.tran 1m
* Wide Bandwidth Absolute Value Circuit
.lib LTC.lib
.backanno
.end
* Z:\mnt\design.r\spice\examples\1024.asc
V1 +V 0 15
V2 -V 0 -15
R1 N003 N001 10K
R2 N001 0 100K
V3 IN- IN+ SINE(0 1m 100)
XU1 IN- N001 +V -V N003 LT1012
XU2 IN+ N002 +V -V OUT LT1012
R3 N002 N003 10K
R4 N002 N001 2.2K
R5 OUT N002 100K
V4 IN+ 0 SINE(0 1 10)
.tran 1
* Two Op Amp Instrumentation Amplifier
.lib LTC.lib
.backanno
.end
* Z:\mnt\design.r\spice\examples\1024A.asc
V1 +V 0 15
V2 -V 0 -15
R1 N003 N001 10K
R2 N001 0 100K
V3 IN- IN+ SINE(0 1m 100)
R3 N002 N003 10K
R4 N002 N001 2.2K
R5 OUT N002 100K
V4 IN+ 0 SINE(0 1 10)
XU1 IN- N001 +V -V N003 LT1012
XU2 IN+ N002 +V -V OUT LT1012
.tran 1
* Two Op Amp Instrumentation Amplifier
.lib LTC.lib
.backanno
.end
* Z:\mnt\design.r\spice\examples\1026.asc
XU1 N001 N003 N004 OUT- 0 IN N002 OUT+ LT1026
C1 N002 N001 1µ
C2 N003 N004 1µ
C3 0 OUT- 1µ
C4 OUT+ 0 1µ
V1 IN 0 {V}
.tran 3m startup
.step param V list 4 5 6
.lib LT1026.sub
.backanno
.end
* Z:\mnt\design.r\spice\examples\1028.asc
V1 +V 0 15
V2 -V 0 -15
R1 OUT N001 10K
R2 N001 0 10
V3 IN 0 ac 1
XU1 IN N001 +V -V OUT LT1028
C1 N002 N001 .1µ
C2 OUT N002 .33µ
R3 N002 N001 787
C3 IN 0 100p
R4 IN 0 47K
.ac oct 10 10 20K
* Phono Preamplifier
.lib LTC.lib
.backanno
.end
* Z:\mnt\design.r\spice\examples\1028A.asc
V1 +V 0 15
V2 -V 0 -15
R1 OUT N001 10K
R2 N001 0 10
V3 IN 0 ac 1
C1 N002 N001 .1µ
C2 OUT N002 .33µ
R3 N002 N001 787
C3 IN 0 100p
R4 IN 0 47K
XU1 IN N001 +V -V OUT LT1028
.ac oct 10 10 20K
* Phono Preamplifier
.lib LTC.lib
.backanno
.end
* Z:\mnt\design.r\spice\examples\1028CS.asc
V1 +V 0 15
V2 -V 0 -15
R1 OUT N001 10K
R2 N001 0 10
V3 IN 0 ac 1
C1 N002 N001 .1µ
C2 OUT N002 .33µ
R3 N002 N001 787
C3 IN 0 100p
R4 IN 0 47K
XU1 IN N001 +V -V OUT LT1028
.ac oct 10 10 20K
* Phono Preamplifier
.lib LTC.lib
.backanno
.end
* Z:\mnt\design.r\spice\examples\1037.asc
V1 +V 0 15
V2 -V 0 -15
R1 OUT N001 355K
R2 N001 0 365
V3 IN 0 SINE(0 1m 1)
XU1 IN N001 +V -V OUT LT1037
.tran 3
* Gain 1000 Amplifier with .01% Accuracy
.lib LTC.lib
.backanno
.end
* Z:\mnt\design.r\spice\examples\1037A.asc
V1 +V 0 15
V2 -V 0 -15
R1 OUT N001 355K
R2 N001 0 365
V3 IN 0 SINE(0 1m 1)
XU1 IN N001 +V -V OUT LT1037
.tran 3
* Gain 1000 Amplifier with .01% Accuracy
.lib LTC.lib
.backanno
.end
* Z:\mnt\design.r\spice\examples\1037CS.asc
V1 +V 0 15
V2 -V 0 -15
R1 OUT N001 355K
R2 N001 0 365
V3 IN 0 SINE(0 1m 1)
XU1 IN N001 +V -V OUT LT1037
.tran 3
* Gain 1000 Amplifier with .01% Accuracy
.lib LTC.lib
.backanno
.end
* Z:\mnt\design.r\spice\examples\1040.asc
XU1 0 NC_01 HEAT N001 N004 N005 N006 0 0 0 N008 N007 N005 N004 COOL N009 N002 N003 LTC1040
V3 N003 0 PWL(0 0 1u 5)
R2 N003 N009 10Meg
C1 N009 0 .1µ
VTemp Temp 0 PWL(0 26 200 28 400 26)
B1 alpha 0 V=1m*(A-1/(V(Temp)+273.15))/C
B2 beta 0 V=1m*sqrt((B/(3*C))**3+(1K*V(alpha))**2/4)
RThermistor N005 0 R=exp((1K*V(beta)-.5K*V(alpha))**.3333 -(1K*V(beta)+.5K*V(alpha))**.3333)
R3 COOL N007 20Meg
R4 N007 0 82K
R5 N008 0 78
RADJ2 N004 N008 {6.81K+5K*(1-TADJ)}
RADJ1 N002 N004 {4.99K+5K*TADJ}
R8 N001 N006 20Meg
R9 N006 0 82K
R10 N002 N005 4.32K
.tran 400
.param A=1.285e-3
.param B=2.362e-4
.param C=9.285e-8
.param TADJ=.662
* Set point adjust
* Complete Heating/Cooling Automatic Thermostat
* Thermistor Calculations
.lib LTC1040.sub
.backanno
.end
* Z:\mnt\design.r\spice\examples\1041.asc
V1 N001 0 5
R1 N001 N006 100K
C1 N006 0 .001µ
V2 N003 0 PULSE(0 5 0 5m 5m 0 10m)
R2 N005 N007 90K
R3 N001 N005 100K
R4 N007 0 10K
XU1 N002 N003 N005 0 N007 N006 N004 N001 LTC1041
.tran  10m
.lib LTC1041.sub
.backanno
.end
* Z:\mnt\design.r\spice\examples\1042.asc
V1 N001 0 5
R1 N001 N004 100K
C1 N004 0 .001µ
V2 N005 0 PULSE(0 5 0 5m 5m 0 10m)
XU1 N002 N003 N005 0 N007 N006 N004 N001 LTC1042
R2 N003 N007 90K
R3 N001 N003 100K
R4 N007 0 10K
.tran  10m
.lib LTC1042.sub
.backanno
.end
* Z:\mnt\design.r\spice\examples\1043.asc
XU1 N004 N003 N005 0 0 N007 N006 +V -V LTC1043
C1 N006 0 1000p
XU2 0 N001 +V -V N002 LT1013
V1 +V 0 5
V2 -V 0 -5
R1 N002 N001 10K
R2 N001 N003 10K
C2 N003 0 .1µ
C3 N005 N007 .1µ
V3 N004 0 SINE(0 10m 100)
C4 N002 N001 .1µ
.tran 25m startup
.lib LTC.lib
.backanno
.end
* Z:\mnt\design.r\spice\examples\1044.asc
XU1 N001 N003 0 N006 N007 N005 N004 N002 LTC1044
V1 N002 0 5
C5 N007 0 10µ
C6 N003 N006 10µ
C1 0 N004 100p
Rload N007 0 1K
.tran 100m startup
.lib LTC1044.sub
.backanno
.end
* Z:\mnt\design.r\spice\examples\1044A.asc
V1 IN 0 5
C5 OUT 0 10µ
C6 N002 N005 10µ
C1 0 N003 100p
Rload OUT 0 1K
XU1 N001 N002 0 N005 OUT N004 N003 IN LTC1044A
.tran 100m startup
.lib LTC1044A.sub
.backanno
.end
* Z:\mnt\design.r\spice\examples\1046.asc
V1 IN 0 5
C5 OUT 0 10µ
C6 N002 N005 10µ
XU1 N001 N002 0 N005 OUT N004 N003 IN LTC1046
Rload OUT 0 73
.tran 10m startup
.lib LTC1046.sub
.backanno
.end
* Z:\mnt\design.r\spice\examples\1047.asc
V1 +V 0 5
R1 N002 N001 220K
R2 N001 IN 220K
V3 IN 0 SINE(0 1 1K)
XU1 0 N001 +V 0 N003 LTC1047
D1 N003 N002 1N4148
XU2 N002 OUT +V 0 OUT LTC1047
.model D D
.lib C:\users\brian\My Documents\LTspiceXVII\lib\cmp\standard.dio
.tran 3m
* Precise DC Full-Wave Rectifier(Absolute Value Circuit)
.lib LTC.lib
.backanno
.end
* Z:\mnt\design.r\spice\examples\1049.asc
V1 +V 0 5
R1 N002 N001 2K
R2 N001 0 198K
V3 IN- IN+ SINE(-25m 5m 100)
XU1 IN- N001 +V 0 N002 LTC1049
R3 N003 N002 2K
R4 OUT N003 198K
XU2 IN+ N003 +V 0 OUT LTC1049
V2 IN+ 0 SINE(2.5 1 10)
.tran .3
* Low Power, Single Supply, Low Offset Instrumentation Amp
.lib LTC.lib
.backanno
.end
* Z:\mnt\design.r\spice\examples\1050.asc
V1 IN 0 0
V2 -V 0 -5
R2 N001 IN 10K
XU1 0 N001 +V -V OUT LTC1050
C1 OUT N001 220p
Q1 N001 0 N002 0 MAT-02
Q2 N003 N004 N002 0 MAT-02
R1 N004 OUT 15.7K
R3 N007 N004 2Meg
R4 N004 0 1K
D1 N007 N005 1N4148
XU2 0 N003 +V -V N005 LTC1050
C2 N003 N005 22p
R5 N006 N003 2.5Meg
R6 +V N006 25K
R7 N002 N005 3K
V3 +V 0 5
B1 Exact 0 V=-Log10(V(in)/10m)
XU3 N006 0 NC_01 LT1009
.model D D
.lib C:\users\brian\My Documents\LTspiceXVII\lib\cmp\standard.dio
.model NPN NPN
.model PNP PNP
.lib C:\users\brian\My Documents\LTspiceXVII\lib\cmp\standard.bjt
.dc dec V1 10u 10 10
* 6 Decade Log Amplifier
.lib LTC.lib
.lib LTC3.lib
.backanno
.end
* Z:\mnt\design.r\spice\examples\1050A.asc
V1 IN 0 0
V2 -V 0 -5
R2 N001 IN 10K
C1 OUT N001 220p
Q1 N001 0 N002 0 MAT-02
Q2 N003 N004 N002 0 MAT-02
R1 N004 OUT 15.7K
R3 N007 N004 2Meg
R4 N004 0 1K
D1 N007 N005 1N4148
C2 N003 N005 22p
R5 N006 N003 2.5Meg
R6 +V N006 25K
R7 N002 N005 3K
V3 +V 0 5
B1 Exact 0 V=-Log10(V(in)/10m)
XU1 0 N001 +V -V OUT LTC1050
XU2 0 N003 +V -V N005 LTC1050
XU3 N006 0 NC_01 LT1009
.model D D
.lib C:\users\brian\My Documents\LTspiceXVII\lib\cmp\standard.dio
.model NPN NPN
.model PNP PNP
.lib C:\users\brian\My Documents\LTspiceXVII\lib\cmp\standard.bjt
.dc dec V1 10u 10 10
* 6 Decade Log Amplifier
.lib LTC.lib
.lib LTC3.lib
.backanno
.end
* Z:\mnt\design.r\spice\examples\1051.asc
V1 +V 0 5
V2 -V 0 -5
R1 N002 N001 499
R2 N001 0 100K
V3 IN- IN+ SINE(0 10m 100)
XU1 IN- N001 +V -V N002 LTC1051
R3 N003 N002 499
R4 OUT N003 100K
XU2 IN+ N003 +V -V OUT LTC1051
V4 IN+ 0 SINE(0 1 10)
.tran .3
* High Performance Low Cost instrumentation Amplifier
.lib LTC.lib
.backanno
.end
* Z:\mnt\design.r\spice\examples\1051A.asc
V1 +V 0 5
V2 -V 0 -5
R1 N002 N001 499
R2 N001 0 100K
V3 IN- IN+ SINE(0 10m 100)
R3 N003 N002 499
R4 OUT N003 100K
V4 IN+ 0 SINE(0 1 10)
XU1 IN- N001 +V -V N002 LTC1051
XU2 IN+ N003 +V -V OUT LTC1051
.tran .3
* High Performance Low Cost instrumentation Amplifier
.lib LTC.lib
.backanno
.end
* Z:\mnt\design.r\spice\examples\1052.asc
V1 +V 0 5
V2 -V 0 -5
XU1 N004 N007 +V 0 N006 LTC1052
J1 +V IN N002 2N5486
D1 N002 N003 1N4148
XU2 N003 +V -V NC_01 OUT LT1010
Q1 N003 N005 N008 0 2N2222
R3 -V N008 100
C1 0 N004 .1µ
R1 OUT N004 10Meg
C2 N007 N006 2000p
R2 N005 N006 10K
C3 0 N005 .01µ
R4 IN N009 10Meg
V3 N001 0 PULSE(-100m 100m 0 10n 10n 1u 2u)
R5 N009 N007 1K
C4 0 N009 .1µ
R6 IN N001 10K
C5 OUT IN 30p
.model D D
.lib C:\users\brian\My Documents\LTspiceXVII\lib\cmp\standard.dio
.model NPN NPN
.model PNP PNP
.lib C:\users\brian\My Documents\LTspiceXVII\lib\cmp\standard.bjt
.model NJF NJF
.model PJF PJF
.lib C:\users\brian\My Documents\LTspiceXVII\lib\cmp\standard.jft
.tran 250u
* DC Stabilized FET Probe
.lib LTC.lib
.backanno
.end
* Z:\mnt\design.r\spice\examples\1052CS.asc
V1 +V 0 5
V2 -V 0 -5
J1 +V IN N002 2N5486
D1 N002 N003 1N4148
XU2 N003 +V -V NC_01 OUT LT1010
Q1 N003 N005 N008 0 2N2222
R3 -V N008 100
C1 0 N004 .1µ
R1 OUT N004 10Meg
C2 N007 N006 2000p
R2 N005 N006 10K
C3 0 N005 .01µ
R4 IN N009 10Meg
V3 N001 0 PULSE(-100m 100m 0 10n 10n 1u 2u)
R5 N009 N007 1K
C4 0 N009 .1µ
R6 IN N001 10K
C5 OUT IN 30p
XU1 N004 N007 +V 0 N006 LTC1052
.model D D
.lib C:\users\brian\My Documents\LTspiceXVII\lib\cmp\standard.dio
.model NPN NPN
.model PNP PNP
.lib C:\users\brian\My Documents\LTspiceXVII\lib\cmp\standard.bjt
.model NJF NJF
.model PJF PJF
.lib C:\users\brian\My Documents\LTspiceXVII\lib\cmp\standard.jft
.tran 250u
* DC Stabilized FET Probe
.lib LTC.lib
.backanno
.end
* Z:\mnt\design.r\spice\examples\1053.asc
V1 +V 0 5
V2 -V 0 -5
R1 N002 N001 499
R2 N001 0 100K
V3 IN- IN+ SINE(0 1m 100)
XU1 IN- N001 +V -V N002 LTC1052
R3 N003 N002 499
R4 OUT N003 100K
XU2 IN+ N003 +V -V OUT LTC1052
V4 IN+ 0 SINE(0 1 10)
.tran .3
* High Performance Low Cost Instrumentation Amplifier
.lib LTC.lib
.backanno
.end
* Z:\mnt\design.r\spice\examples\1054.asc
V1 IN 0 10
C1 OUT 0 100µ
C2 N002 N005 100µ
Rload OUT 0 50
XU1 N001 N002 0 N005 OUT N004 N003 IN LT1054
.tran 10m startup
.lib LT1054.sub
.backanno
.end
* Z:\mnt\design.r\spice\examples\1054L.asc
V1 IN 0 10
C5 OUT 0 100µ
C6 N002 N005 100µ
XU1 N001 N002 0 N005 OUT N004 N003 IN LT1054L
Rload OUT 0 50
.tran 10m startup
.lib LT1054L.sub
.backanno
.end
* Z:\mnt\design.r\spice\examples\1055.asc
V1 +V 0 15
V2 -V 0 -15
XU1 N006 N005 +V -V OUT LT1055
C1 OUT N006 33p
R1 OUT N003 1.5K
D1 N007 N003 1N4148
D2 N007 0 1N4148
D3 N003 N008 1N4148
D4 0 N008 1N4148
D5 N007 N008 LM329
C2 N003 N002 .001µ
R2 N003 N002 3Meg
C3 N005 0 .1µ
D6 N005 N002 1N4148
D7 N002 N001 1N4148
D8 N004 0 1N4148
R3 +V N001 4.7K
R4 N006 0 22K
D9 N001 N004 1N4148
R5 N005 IN 75K
Q1 -V N009 N005 0 2N3906
D10 N009 0 1N4148
C4 N009 0 .1µ
R6 OUT N009 3.3Meg
V3 IN 0 PULSE(1 9 0 50m 50m 0 100m)
.model D D
.lib C:\users\brian\My Documents\LTspiceXVII\lib\cmp\standard.dio
.model NPN NPN
.model PNP PNP
.lib C:\users\brian\My Documents\LTspiceXVII\lib\cmp\standard.bjt
.model LM329 D(Ron=1 Vrev=6.95)
.tran 100m
* 1Hz to 10KHz Voltage-to-Frequency Converter
.lib LTC.lib
.backanno
.end
* Z:\mnt\design.r\spice\examples\1055A.asc
V1 +V 0 15
V2 -V 0 -15
C1 OUT N006 33p
R3 OUT N003 1.5K
D1 N007 N003 1N4148
D2 N007 0 1N4148
D3 N003 N008 1N4148
D4 0 N008 1N4148
D5 N007 N008 LM329
C2 N003 N002 .001µ
R1 N003 N002 3Meg
C3 N005 0 .1µ
D6 N005 N002 1N4148
D7 N002 N001 1N4148
D9 N004 0 1N4148
R2 +V N001 4.7K
R4 N006 0 22K
D8 N001 N004 1N4148
R5 N005 IN 75K
Q1 -V N009 N005 0 2N3906
D10 N009 0 1N4148
C4 N009 0 .1µ
R6 OUT N009 3.3Meg
V3 IN 0 PULSE(1 9 0 50m 50m 0 100m)
XU1 N006 N005 +V -V OUT LT1055
.model D D
.lib C:\users\brian\My Documents\LTspiceXVII\lib\cmp\standard.dio
.model NPN NPN
.model PNP PNP
.lib C:\users\brian\My Documents\LTspiceXVII\lib\cmp\standard.bjt
.model LM329 D(Ron=1 Vrev=6.95)
.tran 100m
* 1Hz to 10KHz Voltage-to-Frequency Converter
.lib LTC.lib
.backanno
.end
* Z:\mnt\design.r\spice\examples\1055S8.asc
V1 +V 0 15
V2 -V 0 -15
C1 OUT N006 33p
R3 OUT N003 1.5K
D1 N007 N003 1N4148
D2 N007 0 1N4148
D3 N003 N008 1N4148
D4 0 N008 1N4148
D5 N007 N008 LM329
C2 N003 N002 .001µ
R1 N003 N002 3Meg
C3 N005 0 .1µ
D6 N005 N002 1N4148
D7 N002 N001 1N4148
D9 N004 0 1N4148
R2 +V N001 4.7K
R4 N006 0 22K
D8 N001 N004 1N4148
R5 N005 IN 75K
Q1 -V N009 N005 0 2N3906
D10 N009 0 1N4148
C4 N009 0 .1µ
R6 OUT N009 3.3Meg
V3 IN 0 PULSE(1 9 0 50m 50m 0 100m)
XU1 N006 N005 +V -V OUT LT1055
.model D D
.lib C:\users\brian\My Documents\LTspiceXVII\lib\cmp\standard.dio
.model NPN NPN
.model PNP PNP
.lib C:\users\brian\My Documents\LTspiceXVII\lib\cmp\standard.bjt
.model LM329 D(Ron=1 Vrev=6.95)
.tran 100m
* 1Hz to 10KHz Voltage-to-Frequency Converter
.lib LTC.lib
.backanno
.end
* Z:\mnt\design.r\spice\examples\1056.asc
V1 +V 0 15
V2 -V 0 -15
C1 OUT N006 33p
R3 OUT N003 1.5K
D1 N007 N003 1N4148
D2 N007 0 1N4148
D3 N003 N008 1N4148
D4 0 N008 1N4148
D5 N007 N008 LM329
C2 N003 N002 .001µ
R1 N003 N002 3Meg
C3 N005 0 .1µ
D6 N005 N002 1N4148
D7 N002 N001 1N4148
D9 N004 0 1N4148
R2 +V N001 4.7K
R4 N006 0 22K
D8 N001 N004 1N4148
R5 N005 IN 75K
Q1 -V N009 N005 0 2N3906
D10 N009 0 1N4148
C4 N009 0 .1µ
R6 OUT N009 3.3Meg
V3 IN 0 PULSE(1 9 0 50m 50m 0 100m)
XU1 N006 N005 +V -V OUT LT1056
.model D D
.lib C:\users\brian\My Documents\LTspiceXVII\lib\cmp\standard.dio
.model NPN NPN
.model PNP PNP
.lib C:\users\brian\My Documents\LTspiceXVII\lib\cmp\standard.bjt
.model LM329 D(Ron=1 Vrev=6.95)
.tran 100m
* 1Hz to 10KHz Voltage-to-Frequency Converter
.lib LTC.lib
.backanno
.end
* Z:\mnt\design.r\spice\examples\1056A.asc
V1 +V 0 15
V2 -V 0 -15
C1 OUT N006 33p
R3 OUT N003 1.5K
D1 N007 N003 1N4148
D2 N007 0 1N4148
D3 N003 N008 1N4148
D4 0 N008 1N4148
D5 N007 N008 LM329
C2 N003 N002 .001µ
R1 N003 N002 3Meg
C3 N005 0 .1µ
D6 N005 N002 1N4148
D7 N002 N001 1N4148
D9 N004 0 1N4148
R2 +V N001 4.7K
R4 N006 0 22K
D8 N001 N004 1N4148
R5 N005 IN 75K
Q1 -V N009 N005 0 2N3906
D10 N009 0 1N4148
C4 N009 0 .1µ
R6 OUT N009 3.3Meg
V3 IN 0 PULSE(1 9 0 50m 50m 0 100m)
XU1 N006 N005 +V -V OUT LT1056
.model D D
.lib C:\users\brian\My Documents\LTspiceXVII\lib\cmp\standard.dio
.model NPN NPN
.model PNP PNP
.lib C:\users\brian\My Documents\LTspiceXVII\lib\cmp\standard.bjt
.model LM329 D(Ron=1 Vrev=6.95)
.tran 100m
* 1Hz to 10KHz Voltage-to-Frequency Converter
.lib LTC.lib
.backanno
.end
* Z:\mnt\design.r\spice\examples\1056S8.asc
V1 +V 0 15
V2 -V 0 -15
C1 OUT N006 33p
R3 OUT N003 1.5K
D1 N007 N003 1N4148
D2 N007 0 1N4148
D3 N003 N008 1N4148
D4 0 N008 1N4148
D5 N007 N008 LM329
C2 N003 N002 .001µ
R1 N003 N002 3Meg
C3 N005 0 .1µ
D6 N005 N002 1N4148
D7 N002 N001 1N4148
D9 N004 0 1N4148
R2 +V N001 4.7K
R4 N006 0 22K
D8 N001 N004 1N4148
R5 N005 IN 75K
Q1 -V N009 N005 0 2N3906
D10 N009 0 1N4148
C4 N009 0 .1µ
R6 OUT N009 3.3Meg
V3 IN 0 PULSE(1 9 0 50m 50m 0 100m)
XU1 N006 N005 +V -V OUT LT1056
.model D D
.lib C:\users\brian\My Documents\LTspiceXVII\lib\cmp\standard.dio
.model NPN NPN
.model PNP PNP
.lib C:\users\brian\My Documents\LTspiceXVII\lib\cmp\standard.bjt
.model LM329 D(Ron=1 Vrev=6.95)
.tran 100m
* 1Hz to 10KHz Voltage-to-Frequency Converter
.lib LTC.lib
.backanno
.end
* Z:\mnt\design.r\spice\examples\1057.asc
V1 +V 0 5
V2 -V 0 -5
V3 IN 0 SINE(0 1 1K)
XU1 0 N001 +V -V N002 LT1057
C1 N001 N002 330p
XU2 IN N003 +V -V N005 LT1057
C2 N003 N005 330p
R1 N001 IN 10K
XU3 N005 +V -V NC_01 N004 LT1010
R2 N004 N003 10K
XU4 N002 +V -V NC_02 N006 LT1010
R3 N001 N006 10K
Rload N004 N006 20
.tran 3m
* Fast, Precision Bridge Amplier
.lib LTC.lib
.backanno
.end
* Z:\mnt\design.r\spice\examples\1057A.asc
V1 +V 0 5
V2 -V 0 -5
V3 IN 0 SINE(0 1 1K)
C1 N001 N002 330p
C2 N003 N005 330p
R1 N001 IN 10K
XU3 N005 +V -V NC_01 N004 LT1010
R2 N004 N003 10K
XU4 N002 +V -V NC_02 N006 LT1010
R3 N001 N006 10K
Rload N004 N006 20
XU1 0 N001 +V -V N002 LT1057
XU2 IN N003 +V -V N005 LT1057
.tran 3m
* Fast, Precision Bridge Amplier
.lib LTC.lib
.backanno
.end
* Z:\mnt\design.r\spice\examples\1057S.asc
V1 +V 0 5
V2 -V 0 -5
V3 IN 0 SINE(0 1 1K)
C1 N001 N002 330p
C2 N003 N005 330p
R1 N001 IN 10K
XU3 N005 +V -V NC_01 N004 LT1010
R2 N004 N003 10K
XU4 N002 +V -V NC_02 N006 LT1010
R3 N001 N006 10K
Rload N004 N006 20
XU1 0 N001 +V -V N002 LT1057
XU2 IN N003 +V -V N005 LT1057
.tran 3m
* Fast, Precision Bridge Amplier
.lib LTC.lib
.backanno
.end
* Z:\mnt\design.r\spice\examples\1058.asc
V1 +V 0 10
V2 -V 0 -10
XU1 IN+ N006 +V -V N007 LT1057
XU2 IN- N004 +V -V N001 LT1057
XU3 N005 N002 +V -V N003 LT1057
XU4 Iout N008 +V -V N008 LT1057
R1 N002 N001 7.5K
R2 N005 N007 7.5K
R3 N003 N002 7.5K
R4 N008 N005 7.5K
R5 Iout N003 {Rx}
R6 N001 N004 4.7K
R7 N006 N007 4.7K
R8 N004 N006 9400
V3 IN- IN+ SINE(0 100m 100K)
V4 IN+ 0 SINE(0 1 10K)
R9 Iout 0 1K
.tran 300u
.param Rx=1K
* Iout=2*V(IN+,IN-)/Rx
* Current Output, High Speed, High Input Impedance Instrumentation Amplifier
.lib LTC.lib
.backanno
.end